<?xml version="1.0" encoding="utf-8"?>
<!DOCTYPE plans SYSTEM "http://www.matsim.org/files/dtd/plans_v4.dtd">

<plans>
	<person id="0">
		<plan>
			<act type="h" x="-8.609345456615019" y="41.173438008634676" end_time="8:54:00"/>
			<leg mode="car"/>
			<act type="w" x="-8.58499118827316" y="41.14715646071553" end_time="17:58:00"/>
			<leg mode="car"/>
			<act type="h" x="-8.609345456615019" y="41.173438008634676" end_time="8:54:00"/>
		</plan>
	</person>
	<person id="1">
		<plan>
			<act type="h" x="-8.61677294791843" y="41.18147474335053" end_time="6:24:00"/>
			<leg mode="car"/>
			<act type="w" x="-8.613420091046763" y="41.1679637344096" end_time="20:29:00"/>
			<leg mode="car"/>
			<act type="h" x="-8.61677294791843" y="41.18147474335053" end_time="6:24:00"/>
		</plan>
	</person>
	<person id="2">
		<plan>
			<act type="h" x="-8.652531292662955" y="41.1781035126338" end_time="11:56:00"/>
			<leg mode="car"/>
			<act type="w" x="-8.675390943653515" y="41.16815207285418" end_time="16:56:00"/>
			<leg mode="car"/>
			<act type="h" x="-8.652531292662955" y="41.1781035126338" end_time="11:56:00"/>
		</plan>
	</person>
</plans>
