<?xml version="1.0" encoding="UTF-8"?>

<vehicleDefinitions xmlns="http://www.matsim.org/files/dtd" xmlns:xsi="http://www.w3.org/2001/XMLSchema-instance" xsi:schemaLocation="http://www.matsim.org/files/dtd http://www.matsim.org/files/dtd/vehicleDefinitions_v2.0.xsd">

	<vehicleType id="defaultTransitVehicleTypeBus">

		<capacity seats="101" standingRoomInPersons="0">

		</capacity>
		<length meter="7.5"/>
		<width meter="1.0"/>
		<costInformation>

		</costInformation>
		<passengerCarEquivalents pce="1.0"/>
		<networkMode networkMode="bus"/>
		<flowEfficiencyFactor factor="1.0"/>
	</vehicleType>

	<vehicleType id="defaultTransitVehicleTypeMetro">

		<capacity seats="101" standingRoomInPersons="0">

		</capacity>
		<length meter="7.5"/>
		<width meter="1.0"/>
		<costInformation>

		</costInformation>
		<passengerCarEquivalents pce="1.0"/>
		<networkMode networkMode="subway"/>
		<flowEfficiencyFactor factor="1.0"/>
	</vehicleType>

	<!-- Metro ====================================================================== -->

	<vehicle id="tr_0_metro" type="defaultTransitVehicleTypeMetro"/>
	<vehicle id="tr_1_metro" type="defaultTransitVehicleTypeMetro"/>
	<vehicle id="tr_10_metro" type="defaultTransitVehicleTypeMetro"/>
	<vehicle id="tr_100_metro" type="defaultTransitVehicleTypeMetro"/>
	<vehicle id="tr_1000_metro" type="defaultTransitVehicleTypeMetro"/>
	<vehicle id="tr_1001_metro" type="defaultTransitVehicleTypeMetro"/>
	<vehicle id="tr_1002_metro" type="defaultTransitVehicleTypeMetro"/>
	<vehicle id="tr_1003_metro" type="defaultTransitVehicleTypeMetro"/>
	<vehicle id="tr_1004_metro" type="defaultTransitVehicleTypeMetro"/>
	<vehicle id="tr_1005_metro" type="defaultTransitVehicleTypeMetro"/>
	<vehicle id="tr_1006_metro" type="defaultTransitVehicleTypeMetro"/>
	<vehicle id="tr_1007_metro" type="defaultTransitVehicleTypeMetro"/>
	<vehicle id="tr_1008_metro" type="defaultTransitVehicleTypeMetro"/>
	<vehicle id="tr_1009_metro" type="defaultTransitVehicleTypeMetro"/>
	<vehicle id="tr_101_metro" type="defaultTransitVehicleTypeMetro"/>
	<vehicle id="tr_1010_metro" type="defaultTransitVehicleTypeMetro"/>
	<vehicle id="tr_1011_metro" type="defaultTransitVehicleTypeMetro"/>
	<vehicle id="tr_1012_metro" type="defaultTransitVehicleTypeMetro"/>
	<vehicle id="tr_1013_metro" type="defaultTransitVehicleTypeMetro"/>
	<vehicle id="tr_1014_metro" type="defaultTransitVehicleTypeMetro"/>
	<vehicle id="tr_1015_metro" type="defaultTransitVehicleTypeMetro"/>
	<vehicle id="tr_1016_metro" type="defaultTransitVehicleTypeMetro"/>
	<vehicle id="tr_1017_metro" type="defaultTransitVehicleTypeMetro"/>
	<vehicle id="tr_1018_metro" type="defaultTransitVehicleTypeMetro"/>
	<vehicle id="tr_1019_metro" type="defaultTransitVehicleTypeMetro"/>
	<vehicle id="tr_102_metro" type="defaultTransitVehicleTypeMetro"/>
	<vehicle id="tr_1020_metro" type="defaultTransitVehicleTypeMetro"/>
	<vehicle id="tr_1021_metro" type="defaultTransitVehicleTypeMetro"/>
	<vehicle id="tr_1022_metro" type="defaultTransitVehicleTypeMetro"/>
	<vehicle id="tr_1023_metro" type="defaultTransitVehicleTypeMetro"/>
	<vehicle id="tr_1024_metro" type="defaultTransitVehicleTypeMetro"/>
	<vehicle id="tr_1025_metro" type="defaultTransitVehicleTypeMetro"/>
	<vehicle id="tr_1026_metro" type="defaultTransitVehicleTypeMetro"/>
	<vehicle id="tr_1027_metro" type="defaultTransitVehicleTypeMetro"/>
	<vehicle id="tr_1028_metro" type="defaultTransitVehicleTypeMetro"/>
	<vehicle id="tr_1029_metro" type="defaultTransitVehicleTypeMetro"/>
	<vehicle id="tr_103_metro" type="defaultTransitVehicleTypeMetro"/>
	<vehicle id="tr_1030_metro" type="defaultTransitVehicleTypeMetro"/>
	<vehicle id="tr_1031_metro" type="defaultTransitVehicleTypeMetro"/>
	<vehicle id="tr_1032_metro" type="defaultTransitVehicleTypeMetro"/>
	<vehicle id="tr_1033_metro" type="defaultTransitVehicleTypeMetro"/>
	<vehicle id="tr_1034_metro" type="defaultTransitVehicleTypeMetro"/>
	<vehicle id="tr_1035_metro" type="defaultTransitVehicleTypeMetro"/>
	<vehicle id="tr_1036_metro" type="defaultTransitVehicleTypeMetro"/>
	<vehicle id="tr_1037_metro" type="defaultTransitVehicleTypeMetro"/>
	<vehicle id="tr_1038_metro" type="defaultTransitVehicleTypeMetro"/>
	<vehicle id="tr_1039_metro" type="defaultTransitVehicleTypeMetro"/>
	<vehicle id="tr_104_metro" type="defaultTransitVehicleTypeMetro"/>
	<vehicle id="tr_1040_metro" type="defaultTransitVehicleTypeMetro"/>
	<vehicle id="tr_1041_metro" type="defaultTransitVehicleTypeMetro"/>
	<vehicle id="tr_1042_metro" type="defaultTransitVehicleTypeMetro"/>
	<vehicle id="tr_1043_metro" type="defaultTransitVehicleTypeMetro"/>
	<vehicle id="tr_1044_metro" type="defaultTransitVehicleTypeMetro"/>
	<vehicle id="tr_1045_metro" type="defaultTransitVehicleTypeMetro"/>
	<vehicle id="tr_1046_metro" type="defaultTransitVehicleTypeMetro"/>
	<vehicle id="tr_1047_metro" type="defaultTransitVehicleTypeMetro"/>
	<vehicle id="tr_1048_metro" type="defaultTransitVehicleTypeMetro"/>
	<vehicle id="tr_1049_metro" type="defaultTransitVehicleTypeMetro"/>
	<vehicle id="tr_105_metro" type="defaultTransitVehicleTypeMetro"/>
	<vehicle id="tr_1050_metro" type="defaultTransitVehicleTypeMetro"/>
	<vehicle id="tr_1051_metro" type="defaultTransitVehicleTypeMetro"/>
	<vehicle id="tr_1052_metro" type="defaultTransitVehicleTypeMetro"/>
	<vehicle id="tr_1053_metro" type="defaultTransitVehicleTypeMetro"/>
	<vehicle id="tr_1054_metro" type="defaultTransitVehicleTypeMetro"/>
	<vehicle id="tr_1055_metro" type="defaultTransitVehicleTypeMetro"/>
	<vehicle id="tr_1056_metro" type="defaultTransitVehicleTypeMetro"/>
	<vehicle id="tr_1057_metro" type="defaultTransitVehicleTypeMetro"/>
	<vehicle id="tr_1058_metro" type="defaultTransitVehicleTypeMetro"/>
	<vehicle id="tr_1059_metro" type="defaultTransitVehicleTypeMetro"/>
	<vehicle id="tr_106_metro" type="defaultTransitVehicleTypeMetro"/>
	<vehicle id="tr_107_metro" type="defaultTransitVehicleTypeMetro"/>
	<vehicle id="tr_108_metro" type="defaultTransitVehicleTypeMetro"/>
	<vehicle id="tr_109_metro" type="defaultTransitVehicleTypeMetro"/>
	<vehicle id="tr_11_metro" type="defaultTransitVehicleTypeMetro"/>
	<vehicle id="tr_110_metro" type="defaultTransitVehicleTypeMetro"/>
	<vehicle id="tr_111_metro" type="defaultTransitVehicleTypeMetro"/>
	<vehicle id="tr_112_metro" type="defaultTransitVehicleTypeMetro"/>
	<vehicle id="tr_113_metro" type="defaultTransitVehicleTypeMetro"/>
	<vehicle id="tr_114_metro" type="defaultTransitVehicleTypeMetro"/>
	<vehicle id="tr_115_metro" type="defaultTransitVehicleTypeMetro"/>
	<vehicle id="tr_116_metro" type="defaultTransitVehicleTypeMetro"/>
	<vehicle id="tr_117_metro" type="defaultTransitVehicleTypeMetro"/>
	<vehicle id="tr_118_metro" type="defaultTransitVehicleTypeMetro"/>
	<vehicle id="tr_119_metro" type="defaultTransitVehicleTypeMetro"/>
	<vehicle id="tr_12_metro" type="defaultTransitVehicleTypeMetro"/>
	<vehicle id="tr_120_metro" type="defaultTransitVehicleTypeMetro"/>
	<vehicle id="tr_121_metro" type="defaultTransitVehicleTypeMetro"/>
	<vehicle id="tr_122_metro" type="defaultTransitVehicleTypeMetro"/>
	<vehicle id="tr_123_metro" type="defaultTransitVehicleTypeMetro"/>
	<vehicle id="tr_124_metro" type="defaultTransitVehicleTypeMetro"/>
	<vehicle id="tr_125_metro" type="defaultTransitVehicleTypeMetro"/>
	<vehicle id="tr_126_metro" type="defaultTransitVehicleTypeMetro"/>
	<vehicle id="tr_127_metro" type="defaultTransitVehicleTypeMetro"/>
	<vehicle id="tr_128_metro" type="defaultTransitVehicleTypeMetro"/>
	<vehicle id="tr_129_metro" type="defaultTransitVehicleTypeMetro"/>
	<vehicle id="tr_13_metro" type="defaultTransitVehicleTypeMetro"/>
	<vehicle id="tr_130_metro" type="defaultTransitVehicleTypeMetro"/>
	<vehicle id="tr_131_metro" type="defaultTransitVehicleTypeMetro"/>
	<vehicle id="tr_132_metro" type="defaultTransitVehicleTypeMetro"/>
	<vehicle id="tr_133_metro" type="defaultTransitVehicleTypeMetro"/>
	<vehicle id="tr_134_metro" type="defaultTransitVehicleTypeMetro"/>
	<vehicle id="tr_135_metro" type="defaultTransitVehicleTypeMetro"/>
	<vehicle id="tr_136_metro" type="defaultTransitVehicleTypeMetro"/>
	<vehicle id="tr_137_metro" type="defaultTransitVehicleTypeMetro"/>
	<vehicle id="tr_138_metro" type="defaultTransitVehicleTypeMetro"/>
	<vehicle id="tr_139_metro" type="defaultTransitVehicleTypeMetro"/>
	<vehicle id="tr_14_metro" type="defaultTransitVehicleTypeMetro"/>
	<vehicle id="tr_140_metro" type="defaultTransitVehicleTypeMetro"/>
	<vehicle id="tr_141_metro" type="defaultTransitVehicleTypeMetro"/>
	<vehicle id="tr_142_metro" type="defaultTransitVehicleTypeMetro"/>
	<vehicle id="tr_143_metro" type="defaultTransitVehicleTypeMetro"/>
	<vehicle id="tr_144_metro" type="defaultTransitVehicleTypeMetro"/>
	<vehicle id="tr_145_metro" type="defaultTransitVehicleTypeMetro"/>
	<vehicle id="tr_146_metro" type="defaultTransitVehicleTypeMetro"/>
	<vehicle id="tr_147_metro" type="defaultTransitVehicleTypeMetro"/>
	<vehicle id="tr_148_metro" type="defaultTransitVehicleTypeMetro"/>
	<vehicle id="tr_149_metro" type="defaultTransitVehicleTypeMetro"/>
	<vehicle id="tr_15_metro" type="defaultTransitVehicleTypeMetro"/>
	<vehicle id="tr_150_metro" type="defaultTransitVehicleTypeMetro"/>
	<vehicle id="tr_151_metro" type="defaultTransitVehicleTypeMetro"/>
	<vehicle id="tr_152_metro" type="defaultTransitVehicleTypeMetro"/>
	<vehicle id="tr_153_metro" type="defaultTransitVehicleTypeMetro"/>
	<vehicle id="tr_154_metro" type="defaultTransitVehicleTypeMetro"/>
	<vehicle id="tr_155_metro" type="defaultTransitVehicleTypeMetro"/>
	<vehicle id="tr_156_metro" type="defaultTransitVehicleTypeMetro"/>
	<vehicle id="tr_157_metro" type="defaultTransitVehicleTypeMetro"/>
	<vehicle id="tr_158_metro" type="defaultTransitVehicleTypeMetro"/>
	<vehicle id="tr_159_metro" type="defaultTransitVehicleTypeMetro"/>
	<vehicle id="tr_16_metro" type="defaultTransitVehicleTypeMetro"/>
	<vehicle id="tr_160_metro" type="defaultTransitVehicleTypeMetro"/>
	<vehicle id="tr_161_metro" type="defaultTransitVehicleTypeMetro"/>
	<vehicle id="tr_162_metro" type="defaultTransitVehicleTypeMetro"/>
	<vehicle id="tr_163_metro" type="defaultTransitVehicleTypeMetro"/>
	<vehicle id="tr_164_metro" type="defaultTransitVehicleTypeMetro"/>
	<vehicle id="tr_165_metro" type="defaultTransitVehicleTypeMetro"/>
	<vehicle id="tr_166_metro" type="defaultTransitVehicleTypeMetro"/>
	<vehicle id="tr_167_metro" type="defaultTransitVehicleTypeMetro"/>
	<vehicle id="tr_168_metro" type="defaultTransitVehicleTypeMetro"/>
	<vehicle id="tr_169_metro" type="defaultTransitVehicleTypeMetro"/>
	<vehicle id="tr_17_metro" type="defaultTransitVehicleTypeMetro"/>
	<vehicle id="tr_170_metro" type="defaultTransitVehicleTypeMetro"/>
	<vehicle id="tr_171_metro" type="defaultTransitVehicleTypeMetro"/>
	<vehicle id="tr_172_metro" type="defaultTransitVehicleTypeMetro"/>
	<vehicle id="tr_173_metro" type="defaultTransitVehicleTypeMetro"/>
	<vehicle id="tr_174_metro" type="defaultTransitVehicleTypeMetro"/>
	<vehicle id="tr_175_metro" type="defaultTransitVehicleTypeMetro"/>
	<vehicle id="tr_176_metro" type="defaultTransitVehicleTypeMetro"/>
	<vehicle id="tr_177_metro" type="defaultTransitVehicleTypeMetro"/>
	<vehicle id="tr_178_metro" type="defaultTransitVehicleTypeMetro"/>
	<vehicle id="tr_179_metro" type="defaultTransitVehicleTypeMetro"/>
	<vehicle id="tr_18_metro" type="defaultTransitVehicleTypeMetro"/>
	<vehicle id="tr_180_metro" type="defaultTransitVehicleTypeMetro"/>
	<vehicle id="tr_181_metro" type="defaultTransitVehicleTypeMetro"/>
	<vehicle id="tr_182_metro" type="defaultTransitVehicleTypeMetro"/>
	<vehicle id="tr_183_metro" type="defaultTransitVehicleTypeMetro"/>
	<vehicle id="tr_184_metro" type="defaultTransitVehicleTypeMetro"/>
	<vehicle id="tr_185_metro" type="defaultTransitVehicleTypeMetro"/>
	<vehicle id="tr_186_metro" type="defaultTransitVehicleTypeMetro"/>
	<vehicle id="tr_187_metro" type="defaultTransitVehicleTypeMetro"/>
	<vehicle id="tr_188_metro" type="defaultTransitVehicleTypeMetro"/>
	<vehicle id="tr_189_metro" type="defaultTransitVehicleTypeMetro"/>
	<vehicle id="tr_19_metro" type="defaultTransitVehicleTypeMetro"/>
	<vehicle id="tr_190_metro" type="defaultTransitVehicleTypeMetro"/>
	<vehicle id="tr_191_metro" type="defaultTransitVehicleTypeMetro"/>
	<vehicle id="tr_192_metro" type="defaultTransitVehicleTypeMetro"/>
	<vehicle id="tr_193_metro" type="defaultTransitVehicleTypeMetro"/>
	<vehicle id="tr_194_metro" type="defaultTransitVehicleTypeMetro"/>
	<vehicle id="tr_195_metro" type="defaultTransitVehicleTypeMetro"/>
	<vehicle id="tr_196_metro" type="defaultTransitVehicleTypeMetro"/>
	<vehicle id="tr_197_metro" type="defaultTransitVehicleTypeMetro"/>
	<vehicle id="tr_198_metro" type="defaultTransitVehicleTypeMetro"/>
	<vehicle id="tr_199_metro" type="defaultTransitVehicleTypeMetro"/>
	<vehicle id="tr_2_metro" type="defaultTransitVehicleTypeMetro"/>
	<vehicle id="tr_20_metro" type="defaultTransitVehicleTypeMetro"/>
	<vehicle id="tr_200_metro" type="defaultTransitVehicleTypeMetro"/>
	<vehicle id="tr_201_metro" type="defaultTransitVehicleTypeMetro"/>
	<vehicle id="tr_202_metro" type="defaultTransitVehicleTypeMetro"/>
	<vehicle id="tr_203_metro" type="defaultTransitVehicleTypeMetro"/>
	<vehicle id="tr_204_metro" type="defaultTransitVehicleTypeMetro"/>
	<vehicle id="tr_205_metro" type="defaultTransitVehicleTypeMetro"/>
	<vehicle id="tr_206_metro" type="defaultTransitVehicleTypeMetro"/>
	<vehicle id="tr_207_metro" type="defaultTransitVehicleTypeMetro"/>
	<vehicle id="tr_208_metro" type="defaultTransitVehicleTypeMetro"/>
	<vehicle id="tr_209_metro" type="defaultTransitVehicleTypeMetro"/>
	<vehicle id="tr_21_metro" type="defaultTransitVehicleTypeMetro"/>
	<vehicle id="tr_210_metro" type="defaultTransitVehicleTypeMetro"/>
	<vehicle id="tr_211_metro" type="defaultTransitVehicleTypeMetro"/>
	<vehicle id="tr_212_metro" type="defaultTransitVehicleTypeMetro"/>
	<vehicle id="tr_213_metro" type="defaultTransitVehicleTypeMetro"/>
	<vehicle id="tr_214_metro" type="defaultTransitVehicleTypeMetro"/>
	<vehicle id="tr_215_metro" type="defaultTransitVehicleTypeMetro"/>
	<vehicle id="tr_216_metro" type="defaultTransitVehicleTypeMetro"/>
	<vehicle id="tr_217_metro" type="defaultTransitVehicleTypeMetro"/>
	<vehicle id="tr_218_metro" type="defaultTransitVehicleTypeMetro"/>
	<vehicle id="tr_219_metro" type="defaultTransitVehicleTypeMetro"/>
	<vehicle id="tr_22_metro" type="defaultTransitVehicleTypeMetro"/>
	<vehicle id="tr_220_metro" type="defaultTransitVehicleTypeMetro"/>
	<vehicle id="tr_221_metro" type="defaultTransitVehicleTypeMetro"/>
	<vehicle id="tr_222_metro" type="defaultTransitVehicleTypeMetro"/>
	<vehicle id="tr_223_metro" type="defaultTransitVehicleTypeMetro"/>
	<vehicle id="tr_224_metro" type="defaultTransitVehicleTypeMetro"/>
	<vehicle id="tr_225_metro" type="defaultTransitVehicleTypeMetro"/>
	<vehicle id="tr_226_metro" type="defaultTransitVehicleTypeMetro"/>
	<vehicle id="tr_227_metro" type="defaultTransitVehicleTypeMetro"/>
	<vehicle id="tr_228_metro" type="defaultTransitVehicleTypeMetro"/>
	<vehicle id="tr_229_metro" type="defaultTransitVehicleTypeMetro"/>
	<vehicle id="tr_23_metro" type="defaultTransitVehicleTypeMetro"/>
	<vehicle id="tr_230_metro" type="defaultTransitVehicleTypeMetro"/>
	<vehicle id="tr_231_metro" type="defaultTransitVehicleTypeMetro"/>
	<vehicle id="tr_232_metro" type="defaultTransitVehicleTypeMetro"/>
	<vehicle id="tr_233_metro" type="defaultTransitVehicleTypeMetro"/>
	<vehicle id="tr_234_metro" type="defaultTransitVehicleTypeMetro"/>
	<vehicle id="tr_235_metro" type="defaultTransitVehicleTypeMetro"/>
	<vehicle id="tr_236_metro" type="defaultTransitVehicleTypeMetro"/>
	<vehicle id="tr_237_metro" type="defaultTransitVehicleTypeMetro"/>
	<vehicle id="tr_238_metro" type="defaultTransitVehicleTypeMetro"/>
	<vehicle id="tr_239_metro" type="defaultTransitVehicleTypeMetro"/>
	<vehicle id="tr_24_metro" type="defaultTransitVehicleTypeMetro"/>
	<vehicle id="tr_240_metro" type="defaultTransitVehicleTypeMetro"/>
	<vehicle id="tr_241_metro" type="defaultTransitVehicleTypeMetro"/>
	<vehicle id="tr_242_metro" type="defaultTransitVehicleTypeMetro"/>
	<vehicle id="tr_243_metro" type="defaultTransitVehicleTypeMetro"/>
	<vehicle id="tr_244_metro" type="defaultTransitVehicleTypeMetro"/>
	<vehicle id="tr_245_metro" type="defaultTransitVehicleTypeMetro"/>
	<vehicle id="tr_246_metro" type="defaultTransitVehicleTypeMetro"/>
	<vehicle id="tr_247_metro" type="defaultTransitVehicleTypeMetro"/>
	<vehicle id="tr_248_metro" type="defaultTransitVehicleTypeMetro"/>
	<vehicle id="tr_249_metro" type="defaultTransitVehicleTypeMetro"/>
	<vehicle id="tr_25_metro" type="defaultTransitVehicleTypeMetro"/>
	<vehicle id="tr_250_metro" type="defaultTransitVehicleTypeMetro"/>
	<vehicle id="tr_251_metro" type="defaultTransitVehicleTypeMetro"/>
	<vehicle id="tr_252_metro" type="defaultTransitVehicleTypeMetro"/>
	<vehicle id="tr_253_metro" type="defaultTransitVehicleTypeMetro"/>
	<vehicle id="tr_254_metro" type="defaultTransitVehicleTypeMetro"/>
	<vehicle id="tr_255_metro" type="defaultTransitVehicleTypeMetro"/>
	<vehicle id="tr_256_metro" type="defaultTransitVehicleTypeMetro"/>
	<vehicle id="tr_257_metro" type="defaultTransitVehicleTypeMetro"/>
	<vehicle id="tr_258_metro" type="defaultTransitVehicleTypeMetro"/>
	<vehicle id="tr_259_metro" type="defaultTransitVehicleTypeMetro"/>
	<vehicle id="tr_26_metro" type="defaultTransitVehicleTypeMetro"/>
	<vehicle id="tr_260_metro" type="defaultTransitVehicleTypeMetro"/>
	<vehicle id="tr_261_metro" type="defaultTransitVehicleTypeMetro"/>
	<vehicle id="tr_262_metro" type="defaultTransitVehicleTypeMetro"/>
	<vehicle id="tr_263_metro" type="defaultTransitVehicleTypeMetro"/>
	<vehicle id="tr_264_metro" type="defaultTransitVehicleTypeMetro"/>
	<vehicle id="tr_265_metro" type="defaultTransitVehicleTypeMetro"/>
	<vehicle id="tr_266_metro" type="defaultTransitVehicleTypeMetro"/>
	<vehicle id="tr_267_metro" type="defaultTransitVehicleTypeMetro"/>
	<vehicle id="tr_268_metro" type="defaultTransitVehicleTypeMetro"/>
	<vehicle id="tr_269_metro" type="defaultTransitVehicleTypeMetro"/>
	<vehicle id="tr_27_metro" type="defaultTransitVehicleTypeMetro"/>
	<vehicle id="tr_270_metro" type="defaultTransitVehicleTypeMetro"/>
	<vehicle id="tr_271_metro" type="defaultTransitVehicleTypeMetro"/>
	<vehicle id="tr_272_metro" type="defaultTransitVehicleTypeMetro"/>
	<vehicle id="tr_273_metro" type="defaultTransitVehicleTypeMetro"/>
	<vehicle id="tr_274_metro" type="defaultTransitVehicleTypeMetro"/>
	<vehicle id="tr_275_metro" type="defaultTransitVehicleTypeMetro"/>
	<vehicle id="tr_276_metro" type="defaultTransitVehicleTypeMetro"/>
	<vehicle id="tr_277_metro" type="defaultTransitVehicleTypeMetro"/>
	<vehicle id="tr_278_metro" type="defaultTransitVehicleTypeMetro"/>
	<vehicle id="tr_279_metro" type="defaultTransitVehicleTypeMetro"/>
	<vehicle id="tr_28_metro" type="defaultTransitVehicleTypeMetro"/>
	<vehicle id="tr_280_metro" type="defaultTransitVehicleTypeMetro"/>
	<vehicle id="tr_281_metro" type="defaultTransitVehicleTypeMetro"/>
	<vehicle id="tr_282_metro" type="defaultTransitVehicleTypeMetro"/>
	<vehicle id="tr_283_metro" type="defaultTransitVehicleTypeMetro"/>
	<vehicle id="tr_284_metro" type="defaultTransitVehicleTypeMetro"/>
	<vehicle id="tr_285_metro" type="defaultTransitVehicleTypeMetro"/>
	<vehicle id="tr_286_metro" type="defaultTransitVehicleTypeMetro"/>
	<vehicle id="tr_287_metro" type="defaultTransitVehicleTypeMetro"/>
	<vehicle id="tr_288_metro" type="defaultTransitVehicleTypeMetro"/>
	<vehicle id="tr_289_metro" type="defaultTransitVehicleTypeMetro"/>
	<vehicle id="tr_29_metro" type="defaultTransitVehicleTypeMetro"/>
	<vehicle id="tr_290_metro" type="defaultTransitVehicleTypeMetro"/>
	<vehicle id="tr_291_metro" type="defaultTransitVehicleTypeMetro"/>
	<vehicle id="tr_292_metro" type="defaultTransitVehicleTypeMetro"/>
	<vehicle id="tr_293_metro" type="defaultTransitVehicleTypeMetro"/>
	<vehicle id="tr_294_metro" type="defaultTransitVehicleTypeMetro"/>
	<vehicle id="tr_295_metro" type="defaultTransitVehicleTypeMetro"/>
	<vehicle id="tr_296_metro" type="defaultTransitVehicleTypeMetro"/>
	<vehicle id="tr_297_metro" type="defaultTransitVehicleTypeMetro"/>
	<vehicle id="tr_298_metro" type="defaultTransitVehicleTypeMetro"/>
	<vehicle id="tr_299_metro" type="defaultTransitVehicleTypeMetro"/>
	<vehicle id="tr_3_metro" type="defaultTransitVehicleTypeMetro"/>
	<vehicle id="tr_30_metro" type="defaultTransitVehicleTypeMetro"/>
	<vehicle id="tr_300_metro" type="defaultTransitVehicleTypeMetro"/>
	<vehicle id="tr_301_metro" type="defaultTransitVehicleTypeMetro"/>
	<vehicle id="tr_302_metro" type="defaultTransitVehicleTypeMetro"/>
	<vehicle id="tr_303_metro" type="defaultTransitVehicleTypeMetro"/>
	<vehicle id="tr_304_metro" type="defaultTransitVehicleTypeMetro"/>
	<vehicle id="tr_305_metro" type="defaultTransitVehicleTypeMetro"/>
	<vehicle id="tr_306_metro" type="defaultTransitVehicleTypeMetro"/>
	<vehicle id="tr_307_metro" type="defaultTransitVehicleTypeMetro"/>
	<vehicle id="tr_308_metro" type="defaultTransitVehicleTypeMetro"/>
	<vehicle id="tr_309_metro" type="defaultTransitVehicleTypeMetro"/>
	<vehicle id="tr_31_metro" type="defaultTransitVehicleTypeMetro"/>
	<vehicle id="tr_310_metro" type="defaultTransitVehicleTypeMetro"/>
	<vehicle id="tr_311_metro" type="defaultTransitVehicleTypeMetro"/>
	<vehicle id="tr_312_metro" type="defaultTransitVehicleTypeMetro"/>
	<vehicle id="tr_313_metro" type="defaultTransitVehicleTypeMetro"/>
	<vehicle id="tr_314_metro" type="defaultTransitVehicleTypeMetro"/>
	<vehicle id="tr_315_metro" type="defaultTransitVehicleTypeMetro"/>
	<vehicle id="tr_316_metro" type="defaultTransitVehicleTypeMetro"/>
	<vehicle id="tr_317_metro" type="defaultTransitVehicleTypeMetro"/>
	<vehicle id="tr_318_metro" type="defaultTransitVehicleTypeMetro"/>
	<vehicle id="tr_319_metro" type="defaultTransitVehicleTypeMetro"/>
	<vehicle id="tr_32_metro" type="defaultTransitVehicleTypeMetro"/>
	<vehicle id="tr_320_metro" type="defaultTransitVehicleTypeMetro"/>
	<vehicle id="tr_321_metro" type="defaultTransitVehicleTypeMetro"/>
	<vehicle id="tr_322_metro" type="defaultTransitVehicleTypeMetro"/>
	<vehicle id="tr_323_metro" type="defaultTransitVehicleTypeMetro"/>
	<vehicle id="tr_324_metro" type="defaultTransitVehicleTypeMetro"/>
	<vehicle id="tr_325_metro" type="defaultTransitVehicleTypeMetro"/>
	<vehicle id="tr_326_metro" type="defaultTransitVehicleTypeMetro"/>
	<vehicle id="tr_327_metro" type="defaultTransitVehicleTypeMetro"/>
	<vehicle id="tr_328_metro" type="defaultTransitVehicleTypeMetro"/>
	<vehicle id="tr_329_metro" type="defaultTransitVehicleTypeMetro"/>
	<vehicle id="tr_33_metro" type="defaultTransitVehicleTypeMetro"/>
	<vehicle id="tr_330_metro" type="defaultTransitVehicleTypeMetro"/>
	<vehicle id="tr_331_metro" type="defaultTransitVehicleTypeMetro"/>
	<vehicle id="tr_332_metro" type="defaultTransitVehicleTypeMetro"/>
	<vehicle id="tr_333_metro" type="defaultTransitVehicleTypeMetro"/>
	<vehicle id="tr_334_metro" type="defaultTransitVehicleTypeMetro"/>
	<vehicle id="tr_335_metro" type="defaultTransitVehicleTypeMetro"/>
	<vehicle id="tr_336_metro" type="defaultTransitVehicleTypeMetro"/>
	<vehicle id="tr_337_metro" type="defaultTransitVehicleTypeMetro"/>
	<vehicle id="tr_338_metro" type="defaultTransitVehicleTypeMetro"/>
	<vehicle id="tr_339_metro" type="defaultTransitVehicleTypeMetro"/>
	<vehicle id="tr_34_metro" type="defaultTransitVehicleTypeMetro"/>
	<vehicle id="tr_340_metro" type="defaultTransitVehicleTypeMetro"/>
	<vehicle id="tr_341_metro" type="defaultTransitVehicleTypeMetro"/>
	<vehicle id="tr_342_metro" type="defaultTransitVehicleTypeMetro"/>
	<vehicle id="tr_343_metro" type="defaultTransitVehicleTypeMetro"/>
	<vehicle id="tr_344_metro" type="defaultTransitVehicleTypeMetro"/>
	<vehicle id="tr_345_metro" type="defaultTransitVehicleTypeMetro"/>
	<vehicle id="tr_346_metro" type="defaultTransitVehicleTypeMetro"/>
	<vehicle id="tr_347_metro" type="defaultTransitVehicleTypeMetro"/>
	<vehicle id="tr_348_metro" type="defaultTransitVehicleTypeMetro"/>
	<vehicle id="tr_349_metro" type="defaultTransitVehicleTypeMetro"/>
	<vehicle id="tr_35_metro" type="defaultTransitVehicleTypeMetro"/>
	<vehicle id="tr_350_metro" type="defaultTransitVehicleTypeMetro"/>
	<vehicle id="tr_351_metro" type="defaultTransitVehicleTypeMetro"/>
	<vehicle id="tr_352_metro" type="defaultTransitVehicleTypeMetro"/>
	<vehicle id="tr_353_metro" type="defaultTransitVehicleTypeMetro"/>
	<vehicle id="tr_354_metro" type="defaultTransitVehicleTypeMetro"/>
	<vehicle id="tr_355_metro" type="defaultTransitVehicleTypeMetro"/>
	<vehicle id="tr_356_metro" type="defaultTransitVehicleTypeMetro"/>
	<vehicle id="tr_357_metro" type="defaultTransitVehicleTypeMetro"/>
	<vehicle id="tr_358_metro" type="defaultTransitVehicleTypeMetro"/>
	<vehicle id="tr_359_metro" type="defaultTransitVehicleTypeMetro"/>
	<vehicle id="tr_36_metro" type="defaultTransitVehicleTypeMetro"/>
	<vehicle id="tr_360_metro" type="defaultTransitVehicleTypeMetro"/>
	<vehicle id="tr_361_metro" type="defaultTransitVehicleTypeMetro"/>
	<vehicle id="tr_362_metro" type="defaultTransitVehicleTypeMetro"/>
	<vehicle id="tr_363_metro" type="defaultTransitVehicleTypeMetro"/>
	<vehicle id="tr_364_metro" type="defaultTransitVehicleTypeMetro"/>
	<vehicle id="tr_365_metro" type="defaultTransitVehicleTypeMetro"/>
	<vehicle id="tr_366_metro" type="defaultTransitVehicleTypeMetro"/>
	<vehicle id="tr_367_metro" type="defaultTransitVehicleTypeMetro"/>
	<vehicle id="tr_368_metro" type="defaultTransitVehicleTypeMetro"/>
	<vehicle id="tr_369_metro" type="defaultTransitVehicleTypeMetro"/>
	<vehicle id="tr_37_metro" type="defaultTransitVehicleTypeMetro"/>
	<vehicle id="tr_370_metro" type="defaultTransitVehicleTypeMetro"/>
	<vehicle id="tr_371_metro" type="defaultTransitVehicleTypeMetro"/>
	<vehicle id="tr_372_metro" type="defaultTransitVehicleTypeMetro"/>
	<vehicle id="tr_373_metro" type="defaultTransitVehicleTypeMetro"/>
	<vehicle id="tr_374_metro" type="defaultTransitVehicleTypeMetro"/>
	<vehicle id="tr_375_metro" type="defaultTransitVehicleTypeMetro"/>
	<vehicle id="tr_376_metro" type="defaultTransitVehicleTypeMetro"/>
	<vehicle id="tr_377_metro" type="defaultTransitVehicleTypeMetro"/>
	<vehicle id="tr_378_metro" type="defaultTransitVehicleTypeMetro"/>
	<vehicle id="tr_379_metro" type="defaultTransitVehicleTypeMetro"/>
	<vehicle id="tr_38_metro" type="defaultTransitVehicleTypeMetro"/>
	<vehicle id="tr_380_metro" type="defaultTransitVehicleTypeMetro"/>
	<vehicle id="tr_381_metro" type="defaultTransitVehicleTypeMetro"/>
	<vehicle id="tr_382_metro" type="defaultTransitVehicleTypeMetro"/>
	<vehicle id="tr_383_metro" type="defaultTransitVehicleTypeMetro"/>
	<vehicle id="tr_384_metro" type="defaultTransitVehicleTypeMetro"/>
	<vehicle id="tr_385_metro" type="defaultTransitVehicleTypeMetro"/>
	<vehicle id="tr_386_metro" type="defaultTransitVehicleTypeMetro"/>
	<vehicle id="tr_387_metro" type="defaultTransitVehicleTypeMetro"/>
	<vehicle id="tr_388_metro" type="defaultTransitVehicleTypeMetro"/>
	<vehicle id="tr_389_metro" type="defaultTransitVehicleTypeMetro"/>
	<vehicle id="tr_39_metro" type="defaultTransitVehicleTypeMetro"/>
	<vehicle id="tr_390_metro" type="defaultTransitVehicleTypeMetro"/>
	<vehicle id="tr_391_metro" type="defaultTransitVehicleTypeMetro"/>
	<vehicle id="tr_392_metro" type="defaultTransitVehicleTypeMetro"/>
	<vehicle id="tr_393_metro" type="defaultTransitVehicleTypeMetro"/>
	<vehicle id="tr_394_metro" type="defaultTransitVehicleTypeMetro"/>
	<vehicle id="tr_395_metro" type="defaultTransitVehicleTypeMetro"/>
	<vehicle id="tr_396_metro" type="defaultTransitVehicleTypeMetro"/>
	<vehicle id="tr_397_metro" type="defaultTransitVehicleTypeMetro"/>
	<vehicle id="tr_398_metro" type="defaultTransitVehicleTypeMetro"/>
	<vehicle id="tr_399_metro" type="defaultTransitVehicleTypeMetro"/>
	<vehicle id="tr_4_metro" type="defaultTransitVehicleTypeMetro"/>
	<vehicle id="tr_40_metro" type="defaultTransitVehicleTypeMetro"/>
	<vehicle id="tr_400_metro" type="defaultTransitVehicleTypeMetro"/>
	<vehicle id="tr_401_metro" type="defaultTransitVehicleTypeMetro"/>
	<vehicle id="tr_402_metro" type="defaultTransitVehicleTypeMetro"/>
	<vehicle id="tr_403_metro" type="defaultTransitVehicleTypeMetro"/>
	<vehicle id="tr_404_metro" type="defaultTransitVehicleTypeMetro"/>
	<vehicle id="tr_405_metro" type="defaultTransitVehicleTypeMetro"/>
	<vehicle id="tr_406_metro" type="defaultTransitVehicleTypeMetro"/>
	<vehicle id="tr_407_metro" type="defaultTransitVehicleTypeMetro"/>
	<vehicle id="tr_408_metro" type="defaultTransitVehicleTypeMetro"/>
	<vehicle id="tr_409_metro" type="defaultTransitVehicleTypeMetro"/>
	<vehicle id="tr_41_metro" type="defaultTransitVehicleTypeMetro"/>
	<vehicle id="tr_410_metro" type="defaultTransitVehicleTypeMetro"/>
	<vehicle id="tr_411_metro" type="defaultTransitVehicleTypeMetro"/>
	<vehicle id="tr_412_metro" type="defaultTransitVehicleTypeMetro"/>
	<vehicle id="tr_413_metro" type="defaultTransitVehicleTypeMetro"/>
	<vehicle id="tr_414_metro" type="defaultTransitVehicleTypeMetro"/>
	<vehicle id="tr_415_metro" type="defaultTransitVehicleTypeMetro"/>
	<vehicle id="tr_416_metro" type="defaultTransitVehicleTypeMetro"/>
	<vehicle id="tr_417_metro" type="defaultTransitVehicleTypeMetro"/>
	<vehicle id="tr_418_metro" type="defaultTransitVehicleTypeMetro"/>
	<vehicle id="tr_419_metro" type="defaultTransitVehicleTypeMetro"/>
	<vehicle id="tr_42_metro" type="defaultTransitVehicleTypeMetro"/>
	<vehicle id="tr_420_metro" type="defaultTransitVehicleTypeMetro"/>
	<vehicle id="tr_421_metro" type="defaultTransitVehicleTypeMetro"/>
	<vehicle id="tr_422_metro" type="defaultTransitVehicleTypeMetro"/>
	<vehicle id="tr_423_metro" type="defaultTransitVehicleTypeMetro"/>
	<vehicle id="tr_424_metro" type="defaultTransitVehicleTypeMetro"/>
	<vehicle id="tr_425_metro" type="defaultTransitVehicleTypeMetro"/>
	<vehicle id="tr_426_metro" type="defaultTransitVehicleTypeMetro"/>